<?xml version="1.0" encoding="UTF-8"?>
<!DOCTYPE network SYSTEM "http://www.matsim.org/files/dtd/network_v1.dtd">
<network>

<!-- ====================================================================== -->

	<nodes>
		<node id="1010785845" x="680421.0359025755" y="4826048.866905911" />
		<node id="1010785848" x="680489.9760454491" y="4825990.484562149" />
		<node id="1010788764" x="680298.3567814955" y="4825169.201187793" />
		<node id="1010794959" x="679244.2932617577" y="4822052.9748220965" />
		<node id="1010796554" x="680496.9256231869" y="4820187.3703137785" />
		<node id="1010857461" x="682507.5180758284" y="4830164.093449376" />
		<node id="1028816415" x="679623.1945233705" y="4826796.183971207" />
		<node id="1028817639" x="679227.4749519125" y="4823576.8342506075" />
		<node id="1028817828" x="679719.6841856261" y="4826772.512518688" />
		<node id="1028818325" x="679504.0233633679" y="4826014.931607701" />
		<node id="1028818489" x="678367.9664366021" y="4818521.861682469" />
		<node id="1028818621" x="679258.7812239369" y="4823572.211999101" />
		<node id="1028818791" x="679522.9481084696" y="4826123.651049847" />
		<node id="1103648583" x="686196.7486879666" y="4823822.264236911" />
		<node id="1103648633" x="686299.4913115759" y="4823823.042267632" />
		<node id="1103648644" x="684488.3467641564" y="4823811.005684564" />
		<node id="1325593051" x="679747.3912729992" y="4820186.398287783" />
		<node id="1331643538" x="680292.3028533963" y="4826119.1186543945" />
		<node id="1331643543" x="679502.6384236508" y="4826834.678871482" />
		<node id="1331643552" x="679397.20885113" y="4826835.354222529" />
		<node id="1331643564" x="679449.538010464" y="4826817.199893691" />
		<node id="1331643576" x="679523.1471417226" y="4826816.604670601" />
		<node id="1331643579" x="679882.4850932112" y="4826750.214725766" />
		<node id="1331643584" x="679852.1325221872" y="4826669.219858901" />
		<node id="1331643595" x="679875.8174792504" y="4826734.842110741" />
		<node id="1331643600" x="680125.7451931647" y="4826387.347742159" />
		<node id="1331643626" x="680252.2474113057" y="4826223.066917727" />
		<node id="1331643630" x="679629.1240556865" y="4826815.711836066" />
		<node id="1331643643" x="680050.8921040789" y="4826453.734192529" />
		<node id="1331643645" x="680007.4199244889" y="4826445.985258383" />
		<node id="1331643655" x="680245.7124861822" y="4826208.759917739" />
		<node id="1331643689" x="679930.0872127945" y="4826704.96691078" />
		<node id="1331643690" x="679382.9033360971" y="4826817.360146068" />
		<node id="1331643697" x="679724.6683099945" y="4826792.807235825" />
		<node id="1341678763" x="683678.5136314792" y="4824946.816192981" />
		<node id="1341785059" x="683839.5149467386" y="4825293.0935567515" />
		<node id="1341785063" x="683871.3851463128" y="4825293.34532626" />
		<node id="1341785075" x="684018.1307048566" y="4825411.00279923" />
		<node id="1341785082" x="683832.33316354" y="4825836.147420323" />
		<node id="1341816988" x="683237.1656868587" y="4819473.093911105" />
		<node id="1341816989" x="683312.8895464278" y="4819470.932806579" />
		<node id="1341816994" x="680381.378526991" y="4819980.137467763" />
		<node id="1341816995" x="680624.9537629308" y="4819986.564085414" />
		<node id="1341816999" x="680436.8341670005" y="4820573.973063382" />
		<node id="1341817005" x="683305.7326423856" y="4821228.866199425" />
		<node id="1341817006" x="683305.3428689337" y="4821252.896065189" />
		<node id="1341817007" x="683305.4921438735" y="4821437.486196853" />
		<node id="1341817008" x="683305.4423855587" y="4821459.229247064" />
		<node id="1341817009" x="683300.7485180188" y="4826094.499558422" />
		<node id="1341817016" x="683297.3981249322" y="4826314.689649547" />
		<node id="1341817161" x="683541.6285119943" y="4828187.459559526" />
		<node id="1341817164" x="683489.2164221376" y="4828563.09590579" />
		<node id="1350849607" x="682237.1314021542" y="4818639.895347863" />
		<node id="1350849659" x="682484.7453545105" y="4819154.012438269" />
		<node id="1350849872" x="685974.1382879693" y="4821840.115464206" />
		<node id="1350850225" x="681668.4021758608" y="4824711.141472081" />
		<node id="1350850238" x="682009.1802765458" y="4824725.708556804" />
		<node id="1350850318" x="682008.7905030923" y="4825176.834248336" />
		<node id="1350850496" x="682131.1213159796" y="4825367.365959185" />
		<node id="1350850690" x="682007.1899440197" y="4825518.980274276" />
		<node id="1350850704" x="682005.6391432617" y="4825747.460921662" />
		<node id="1350850706" x="681984.1518450301" y="4825747.712707758" />
		<node id="1350850713" x="682817.4460223595" y="4825752.290638377" />
		<node id="1350850722" x="682005.3986447481" y="4825769.045890374" />
		<node id="1350850729" x="682005.2825420176" y="4825788.387727804" />
		<node id="1350850734" x="681256.220895803" y="4825805.131622598" />
		<node id="1350850740" x="683301.2129289419" y="4825822.310466022" />
		<node id="1350850753" x="680821.7893567138" y="4825843.517984654" />
		<node id="1350850754" x="683653.7339915286" y="4825910.952147115" />
		<node id="1350913400" x="679276.8683707687" y="4823163.772796808" />
		<node id="1350913421" x="680296.3996211789" y="4824409.8854958825" />
		<node id="1350987257" x="677907.2376290121" y="4817488.4215984" />
		<node id="1350987266" x="677997.6484840106" y="4817597.624048567" />
		<node id="1350987271" x="677907.1464054368" y="4817608.9867810365" />
		<node id="1350987373" x="677803.906198695" y="4817818.514804494" />
		<node id="1350987435" x="678732.4129082436" y="4817954.758872405" />
		<node id="1350987483" x="679417.9166024534" y="4818007.688783256" />
		<node id="1350987696" x="678551.7819384428" y="4818518.763383105" />
		<node id="1350987698" x="678645.9744252445" y="4818519.449353323" />
		<node id="1350987700" x="679047.7810970095" y="4818518.100278622" />
		<node id="1350987702" x="679037.8128482741" y="4818518.134577131" />
		<node id="1350987704" x="679292.9154267614" y="4818519.209263738" />
		<node id="1350987709" x="679489.6100386559" y="4818520.478308777" />
		<node id="1350987714" x="679037.9206579519" y="4818532.185546119" />
		<node id="1350987716" x="679047.3415652429" y="4818532.231277552" />
		<node id="1350987734" x="679036.7347514905" y="4818585.35997654" />
		<node id="1350987993" x="678435.7704313264" y="4819350.952546453" />
		<node id="1350988045" x="678771.7053895314" y="4819874.430757962" />
		<node id="1350988081" x="677577.9454056153" y="4820161.949020037" />
		<node id="1350988120" x="680077.5542668764" y="4823505.933371986" />
		<node id="1350988124" x="678891.0589966816" y="4823909.518640767" />
		<node id="1350997691" x="676707.664215509" y="4819447.560904542" />
		<node id="1350997694" x="676705.9973120177" y="4819883.0985557465" />
		<node id="1351495733" x="682795.759690875" y="4815909.5401089145" />
		<node id="1351495758" x="683523.0437820313" y="4816216.42545482" />
		<node id="1351495869" x="682685.478682823" y="4816841.038462729" />
		<node id="1351536709" x="686702.5502342236" y="4818326.591510645" />
		<node id="1351536713" x="686711.6808846864" y="4818460.1703451015" />
		<node id="1351536717" x="686336.0553786901" y="4818485.128060285" />
		<node id="1351536732" x="686711.5979541651" y="4818519.826636975" />
		<node id="1351536734" x="686916.6104974119" y="4818519.57511454" />
		<node id="1351536736" x="687444.6954749083" y="4818518.660487575" />
		<node id="1351536737" x="688485.7969540684" y="4818522.021742256" />
		<node id="1351536741" x="688624.481665879" y="4818528.824286491" />
		<node id="1351536742" x="687162.4580296463" y="4818531.842560365" />
		<node id="1351536743" x="687444.9276803666" y="4818531.396678916" />
		<node id="1351536744" x="687349.6405106803" y="4818531.9340232285" />
		<node id="1351536746" x="687256.4929484555" y="4818531.579604635" />
		<node id="1351536747" x="687071.2510416372" y="4818532.482800446" />
		<node id="1351593844" x="680330.243567175" y="4816842.832982129" />
		<node id="1351593846" x="681291.3336787857" y="4817304.074223359" />
		<node id="1351593850" x="680601.2605128163" y="4817313.824723922" />
		<node id="1351593854" x="680312.7783992559" y="4817318.05413642" />
		<node id="1351593855" x="680160.8082178343" y="4817320.340306417" />
		<node id="1351593856" x="680099.6884231803" y="4817321.506253405" />
		<node id="1351593860" x="680601.4512530193" y="4817326.833033338" />
		<node id="1351593862" x="679965.4902526027" y="4817327.221682676" />
		<node id="1351593873" x="680326.5282797932" y="4817479.059509138" />
		<node id="1351593876" x="680304.9414649351" y="4817593.988892628" />
		<node id="1351593882" x="682235.9703748467" y="4818560.939245525" />
		<node id="1351593884" x="682236.8743175366" y="4818622.391390321" />
		<node id="1351702343" x="680196.5098075221" y="4816502.71702364" />
		<node id="1351702415" x="680899.7108751117" y="4816802.279243577" />
		<node id="1351702441" x="680899.0806031434" y="4816879.146382507" />
		<node id="1351702468" x="681447.0191475922" y="4816928.753287837" />
		<node id="1351702501" x="681327.4665071875" y="4817049.640179156" />
		<node id="1351702514" x="681077.8207570461" y="4817075.495800754" />
		<node id="1351702558" x="680953.1015451254" y="4817199.72301103" />
		<node id="1351702566" x="681084.596180686" y="4817235.089539453" />
		<node id="1351702572" x="681713.8232227191" y="4817302.713955321" />
		<node id="1351702574" x="680328.7093525195" y="4817318.25989169" />
		<node id="1351702575" x="680942.146423179" y="4817322.19210467" />
		<node id="1351702576" x="680328.9498510332" y="4817329.302100107" />
		<node id="1360596151" x="680581.4401180759" y="4831408.471402367" />
		<node id="1360596320" x="679544.9495759349" y="4831371.886697341" />
		<node id="1360596346" x="680092.1334526307" y="4831425.606947803" />
		<node id="1360596353" x="680087.9205821179" y="4831353.193522938" />
		<node id="1360596386" x="680039.5389156266" y="4831426.981458642" />
		<node id="1360596399" x="680007.6272507932" y="4831406.695997353" />
		<node id="1374415901" x="682592.795531523" y="4822684.911493318" />
		<node id="1374415912" x="684957.9906028549" y="4823212.463886815" />
		<node id="1374415914" x="684751.4521380068" y="4823212.200752648" />
		<node id="1374415917" x="684661.6383827646" y="4823223.469768229" />
		<node id="1374415920" x="684512.4712529834" y="4823227.050687693" />
		<node id="1374415922" x="684423.1467878198" y="4823229.075681308" />
		<node id="1374415923" x="684167.3061276905" y="4823229.887967052" />
		<node id="1374415933" x="682589.801739682" y="4823652.62131116" />
		<node id="1374891923" x="685987.3988784251" y="4822288.032533063" />
		<node id="1374891957" x="683717.8226988709" y="4822566.31671692" />
		<node id="1374891964" x="684955.8841675984" y="4823621.19200488" />
		<node id="1375180867" x="684172.804421294" y="4817290.585863099" />
		<node id="1375180868" x="683947.7143986907" y="4817291.603204603" />
		<node id="1375180869" x="683931.766859326" y="4817291.683220238" />
		<node id="1375180870" x="683765.6487308638" y="4817292.609115457" />
		<node id="1375180871" x="683627.9757714195" y="4817293.054916905" />
		<node id="1375180872" x="683611.6218724975" y="4817293.809350187" />
		<node id="1375180874" x="684987.2401979362" y="4819247.153523844" />
		<node id="1375429956" x="688104.3994837486" y="4818521.175712011" />
		<node id="1375429957" x="687948.465223376" y="4818533.488892127" />
		<node id="1375429958" x="688104.33313933" y="4818534.40352105" />
		<node id="1375429960" x="687947.2295586015" y="4818714.77071365" />
		<node id="1375429961" x="688103.2965078057" y="4818716.26845791" />
		<node id="1375429962" x="688008.1005616905" y="4818715.045109522" />
		<node id="1375429968" x="688212.9140716842" y="4818732.515002448" />
		<node id="1375429977" x="687716.7739312318" y="4818825.741867087" />
		<node id="1375429980" x="688206.7274547465" y="4818851.7756424965" />
		<node id="1375429985" x="686616.3771288933" y="4821566.973305431" />
		<node id="1375429986" x="686616.2610261629" y="4821685.859731748" />
		<node id="1375429990" x="686613.4828536789" y="4822254.996540601" />
		<node id="1375429991" x="686612.2223097449" y="4822555.700827871" />
		<node id="1375429993" x="686372.4535847636" y="4822682.646424954" />
		<node id="1375430000" x="686611.9237598653" y="4822683.492965568" />
		<node id="1375430042" x="686611.1939712733" y="4822809.342679393" />
		<node id="1375430067" x="688591.491904258" y="4822944.049375867" />
		<node id="1375430070" x="686611.0281102295" y="4822998.253118335" />
		<node id="1375430072" x="686610.6051645669" y="4823100.026428794" />
		<node id="1375430077" x="686610.3646660547" y="4823205.336386707" />
		<node id="1375430081" x="688265.5915392084" y="4823207.052477551" />
		<node id="1375430082" x="686610.1490466964" y="4823305.305110808" />
		<node id="1375430084" x="686609.9251342895" y="4823411.71653373" />
		<node id="1375430085" x="686609.9085481842" y="4823420.045547839" />
		<node id="1375430091" x="686609.5187747307" y="4823516.4706357345" />
		<node id="1375430092" x="686609.14558738" y="4823635.05886717" />
		<node id="1375430098" x="686854.5784670127" y="4824100.33571767" />
		<node id="1395273514" x="679197.8272903225" y="4823502.798510524" />
		<node id="1538309190" x="679293.4378890477" y="4823417.814560929" />
		<node id="1538309201" x="679303.4641891462" y="4823627.816517296" />
		<node id="1562707009" x="681414.6679509908" y="4817639.519930452" />
		<node id="1562707032" x="681597.4882865679" y="4817359.9597527" />
		<node id="1562707043" x="681968.7516471085" y="4817655.7525096405" />
		<node id="1562707117" x="681531.4258328062" y="4817365.3094241535" />
		<node id="1562707122" x="681435.8235271322" y="4817551.4302754225" />
		<node id="1646266378" x="681763.6147080828" y="4818529.784646213" />
		<node id="1684134699" x="683532.7383600451" y="4827217.876819055" />
		<node id="1684134703" x="683532.116381132" y="4827378.495246986" />
		<node id="1684134704" x="683370.6589479981" y="4826699.735902494" />
		<node id="1684134705" x="683458.8638511163" y="4827413.009637605" />
		<node id="1684134724" x="683543.4861556843" y="4827557.525500153" />
		<node id="1684134736" x="683499.0436889885" y="4827383.349001592" />
		<node id="1684137114" x="683897.7736383888" y="4830182.302405602" />
		<node id="1751873204" x="679263.9809676609" y="4825218.3184207855" />
		<node id="1751873205" x="679260.9540036119" y="4824654.555562939" />
		<node id="1751873215" x="677502.5035098204" y="4825167.061185827" />
		<node id="1751873216" x="678340.1764187078" y="4831368.622260656" />
		<node id="1751873217" x="679398.0547424539" y="4825885.132064017" />
		<node id="1751873221" x="679255.9201209303" y="4825165.790917597" />
		<node id="1751873228" x="679272.2076754352" y="4825295.199265621" />
		<node id="1751873241" x="679309.5595825103" y="4825550.521231565" />
		<node id="1751873245" x="679364.4761741265" y="4825295.977462539" />
		<node id="1751873249" x="679346.0821843639" y="4825146.393607453" />
		<node id="1751873252" x="679223.3035466573" y="4824622.721186794" />
		<node id="1751873976" x="678314.8743164681" y="4830913.185508609" />
		<node id="1751873987" x="678342.3160261723" y="4830903.117973977" />
		<node id="1751874013" x="678341.9925971362" y="4830913.643644777" />
		<node id="1751874026" x="678327.4963419044" y="4831137.962226292" />
		<node id="1751874027" x="678325.6635773679" y="4831167.009067448" />
		<node id="1751874032" x="678340.0851951339" y="4831358.897684749" />
		<node id="1796408536" x="687445.8399161091" y="4818951.075331654" />
		<node id="1796408539" x="687672.314878428" y="4818963.606516568" />
		<node id="1796420273" x="687913.7422138479" y="4818928.059628849" />
		<node id="1796420278" x="687445.5745384388" y="4818857.606672846" />
		<node id="1859210719" x="687490.655570157" y="4818601.514749171" />
		<node id="1859210721" x="687444.9857317338" y="4818601.4347183565" />
		<node id="1860609878" x="679204.9510221594" y="4823957.196670875" />
		<node id="1860609882" x="679204.3124571397" y="4823922.276228717" />
		<node id="1860609888" x="679216.4451924977" y="4823923.77510383" />
		<node id="1860609890" x="679246.8392287808" y="4823960.9495991655" />
		<node id="1860609894" x="680827.0305656983" y="4829322.124934461" />
		<node id="1860609919" x="679248.0168421908" y="4823925.3769554505" />
		<node id="1860609939" x="679258.0182631356" y="4823960.17155289" />
		<node id="1860609951" x="679215.2841651887" y="4823958.077693493" />
		<node id="1860609959" x="679260.2408011225" y="4823925.47993164" />
		<node id="1892271833" x="679731.1866490141" y="4823917.653745692" />
		<node id="1902439970" x="687436.4273018694" y="4825416.072609987" />
		<node id="1902439990" x="687435.7389785391" y="4824905.631182929" />
		<node id="1902444554" x="687346.3232898016" y="4824893.524049766" />
		<node id="1902444560" x="687268.003704899" y="4824965.263129145" />
		<node id="1902444578" x="687232.6006650893" y="4825479.897611898" />
		<node id="1902444594" x="687181.8886509347" y="4825179.512115658" />
		<node id="1902446844" x="687078.4494109398" y="4825225.470889538" />
		<node id="1902446846" x="687193.9799210305" y="4824889.782057332" />
		<node id="1902446849" x="687206.9751338161" y="4824764.672512823" />
		<node id="1902446877" x="687168.130477349" y="4824928.06033267" />
		<node id="1902448088" x="687092.8710287046" y="4824877.365980774" />
		<node id="1902451523" x="687288.7612145371" y="4825177.990079831" />
		<node id="1902451584" x="687324.8691637809" y="4825431.762725137" />
		<node id="1902455469" x="687195.8541508261" y="4825500.268635219" />
		<node id="1902457473" x="687076.392733998" y="4825178.16173799" />
		<node id="1902458989" x="686756.2228680128" y="4825316.748486235" />
		<node id="1902458992" x="686609.9997717566" y="4825341.0100366715" />
		<node id="1902458997" x="686679.4872560775" y="4825340.014395894" />
		<node id="1902461902" x="686677.8369386914" y="4825522.322052467" />
		<node id="1902464593" x="687041.9268090861" y="4825479.806056876" />
		<node id="1902464595" x="686878.4790434302" y="4825498.4833071735" />
		<node id="1902464636" x="686977.8629809017" y="4825498.036975233" />
		<node id="1902467296" x="686789.7267988687" y="4825501.378743278" />
		<node id="1902470512" x="686880.2786357545" y="4825226.958603968" />
		<node id="1902473256" x="686979.0157151564" y="4825226.214746715" />
		<node id="1902484711" x="686835.7698246386" y="4825054.06544793" />
		<node id="1902487282" x="686609.5187747307" y="4824926.37814391" />
		<node id="1902490720" x="686609.3777928437" y="4824803.590915982" />
		<node id="1902505110" x="687197.0317642373" y="4824347.168876737" />
		<node id="1902505114" x="687205.0179734981" y="4824449.923278269" />
		<node id="1902507879" x="687202.5632300501" y="4824440.31144306" />
		<node id="1902509372" x="687021.8493297297" y="4824755.540852276" />
		<node id="1902510501" x="687013.4650539616" y="4824446.902414332" />
		<node id="1902519603" x="688256.9170066135" y="4824591.390445361" />
		<node id="1902519617" x="688469.0864539009" y="4824517.984608975" />
		<node id="1902899296" x="679823.198063088" y="4817102.425985257" />
		<node id="1902901629" x="679906.1783433228" y="4816275.285181715" />
		<node id="1902902781" x="679827.875344527" y="4816273.547955405" />
		<node id="1902939798" x="682710.6646823324" y="4816953.36256" />
		<node id="1902939801" x="682765.8300655122" y="4817004.970305973" />
		<node id="1902941973" x="682992.2552695193" y="4817224.298956956" />
		<node id="1902942775" x="682937.0567141259" y="4816835.917798479" />
		<node id="1903044299" x="684561.3422095506" y="4817223.807437179" />
		<node id="1903044300" x="684476.8111285577" y="4817222.915843258" />
		<node id="1903044976" x="684962.6181259765" y="4816876.803208007" />
		<node id="1903045991" x="684844.6909238038" y="4817106.403797302" />
		<node id="1903048711" x="684737.2544326517" y="4817223.190179836" />
		<node id="1903050001" x="684843.239639671" y="4816998.775070024" />
		<node id="1903050002" x="684842.8001079058" y="4816878.391994533" />
		<node id="1903050276" x="684646.3211153655" y="4817222.8243977325" />
		<node id="1903051100" x="684550.3870876068" y="4817057.584314304" />
		<node id="1903051376" x="684443.0003547693" y="4816901.263702952" />
		<node id="1903052296" x="685261.1514187946" y="4816875.705916806" />
		<node id="1903052616" x="685075.6109620968" y="4816877.3518536715" />
		<node id="1903052617" x="685077.2695725353" y="4816994.260095298" />
		<node id="1903053157" x="685027.7434648447" y="4816747.918405109" />
		<node id="1903057185" x="685674.5351914205" y="4817290.3801086545" />
		<node id="1903064638" x="685742.0323432152" y="4817766.546597599" />
		<node id="1911609030" x="686393.4515929138" y="4818400.571731998" />
		<node id="1911618573" x="686702.30973571" y="4818377.958005787" />
		<node id="1911620248" x="686844.6019252233" y="4818326.877323605" />
		<node id="1911620254" x="686752.6236833599" y="4818326.362860286" />
		<node id="1911741106" x="686654.1271024717" y="4818216.462941824" />
		<node id="1911741107" x="686653.4553652455" y="4818326.09991238" />
		<node id="1911741881" x="686554.8592677319" y="4818019.498039042" />
		<node id="1911741882" x="686556.8496002551" y="4818325.676909254" />
		<node id="1911742923" x="686236.8124231085" y="4818219.149541251" />
		<node id="1911742924" x="686555.6305215845" y="4818219.709725943" />
		<node id="1911744538" x="686522.4500197647" y="4818425.106222481" />
		<node id="1911746154" x="686209.2711967764" y="4818117.676835378" />
		<node id="1911746156" x="686454.4635778927" y="4818117.699699726" />
		<node id="1911747708" x="686343.4942465079" y="4818284.417080037" />
		<node id="1911748520" x="686488.3572822036" y="4818019.212238808" />
		<node id="1911749500" x="686393.8911246818" y="4817860.503480885" />
		<node id="1911749511" x="686922.4239269976" y="4817737.704754525" />
		<node id="1911750879" x="686637.0682941128" y="4817738.493531033" />
		<node id="1911750881" x="686636.7863303386" y="4817689.223751163" />
		<node id="1911752649" x="686984.314975507" y="4818114.20145592" />
		<node id="1911752650" x="686920.1433376448" y="4818113.847058769" />
		<node id="1911752651" x="686555.1246454022" y="4818115.973441938" />
		<node id="1911753011" x="686983.7178757506" y="4818254.201185316" />
		<node id="1911756102" x="687359.2604512229" y="4818257.01355586" />
		<node id="1911756106" x="687265.4743239799" y="4818256.0989636835" />
		<node id="1911756108" x="687552.3973437266" y="4818257.367960358" />
		<node id="1911757229" x="687078.0762235918" y="4818254.944291241" />
		<node id="1911757477" x="687171.6550245319" y="4818306.481740514" />
		<node id="1911802654" x="686837.1962296149" y="4817737.94481693" />
		<node id="1911883837" x="689125.713740379" y="4818787.874732689" />
		<node id="1911883852" x="688409.0032907684" y="4818743.307942684" />
		<node id="1912007908" x="687456.5462464921" y="4818309.191239959" />
		<node id="1912011509" x="687553.1437184267" y="4818164.811842109" />
		<node id="1912019660" x="688428.0109663941" y="4818997.129834765" />
		<node id="1912021731" x="688676.3464142899" y="4818996.946896704" />
		<node id="1912023561" x="688429.9183683975" y="4819250.377924715" />
		<node id="1912023564" x="688572.2851953807" y="4819250.549435439" />
		<node id="1912026266" x="688529.9574569927" y="4818997.701516227" />
		<node id="1912027851" x="688634.9474977469" y="4818997.4271091195" />
		<node id="1912032920" x="688740.6258618326" y="4819398.073107031" />
		<node id="1912039363" x="688766.2513931058" y="4819359.093712281" />
		<node id="1912044611" x="688917.5083720395" y="4819666.109573857" />
		<node id="1912058554" x="678507.7292451976" y="4828818.870990458" />
		<node id="1912058558" x="678620.5064619594" y="4828777.124697425" />
		<node id="1912060958" x="678592.9237703709" y="4828742.420278242" />
		<node id="1912064123" x="678505.6559821519" y="4828498.166107879" />
		<node id="1912066415" x="678704.4570293042" y="4828672.737171848" />
		<node id="1912098011" x="678822.7159535656" y="4829321.277578328" />
		<node id="1912110191" x="678849.054687327" y="4829321.334832115" />
		<node id="1912115497" x="678750.8400702155" y="4830631.987276145" />
		<node id="1912115500" x="679164.6965468145" y="4830654.10293177" />
		<node id="1914506858" x="683112.3635444196" y="4819760.561148407" />
		<node id="1914506861" x="683310.733352858" y="4819821.269265373" />
		<node id="1918677895" x="683130.6580175558" y="4819692.02073671" />
		<node id="1924976143" x="680271.0145884177" y="4817656.438394109" />
		<node id="1924976148" x="680253.325508092" y="4817731.70319709" />
		<node id="1924976149" x="686314.0124459671" y="4825709.338323853" />
		<node id="1988782493" x="686609.3446206345" y="4824774.731085239" />
		<node id="1988782499" x="686884.9725032932" y="4824798.899182698" />
		<node id="1988782501" x="686724.1702212896" y="4824801.370924712" />
		<node id="1988782504" x="686652.2279935223" y="4824802.469477006" />
		<node id="1989817194" x="687433.1847184635" y="4825162.472199896" />
		<node id="1993230966" x="679099.6126732125" y="4829307.009948795" />
		<node id="1994280624" x="678505.3408461685" y="4828652.975052042" />
		<node id="1999072739" x="684646.4952694619" y="4817056.052638613" />
		<node id="2013909126" x="681561.3554581675" y="4816857.48633632" />
		<node id="2023721868" x="688529.8828195228" y="4819145.414159346" />
		<node id="2023721870" x="688711.2269918117" y="4819600.771795501" />
		<node id="2023721887" x="688529.8247681583" y="4819250.503699249" />
		<node id="2030988879" x="683272.4028656245" y="4816471.9488826655" />
		<node id="2031042347" x="686774.3929453644" y="4825234.660392275" />
		<node id="2031042348" x="686800.1014071602" y="4825254.710258948" />
		<node id="2053452139" x="679218.6594374304" y="4829905.588722934" />
		<node id="2053452141" x="679193.4153865593" y="4829923.018276413" />
		<node id="2053452161" x="679198.830749639" y="4829900.939322556" />
		<node id="2053452222" x="678907.7777899004" y="4829884.162571418" />
		<node id="2053452242" x="678752.1420794072" y="4830008.574890868" />
		<node id="2053452245" x="679305.7116062926" y="4829945.120204607" />
		<node id="2053452266" x="679214.512911336" y="4829927.278331667" />
		<node id="2261892532" x="685892.7834459636" y="4818527.09792589" />
		<node id="2288699374" x="685093.6400575626" y="4831474.952058742" />
		<node id="2288699380" x="685093.042957805" y="4831562.406483772" />
		<node id="2288699389" x="685091.8404652383" y="4831654.386598985" />
		<node id="2288699394" x="685288.004321791" y="4831654.294961895" />
		<node id="2288699410" x="685416.7788362323" y="4831653.882595006" />
		<node id="2288699415" x="685519.4717015324" y="4831562.406483772" />
		<node id="2288699417" x="685288.9663158469" y="4831563.242661106" />
		<node id="2288699419" x="685416.3310114144" y="4831743.790615348" />
		<node id="2288699430" x="685092.3712205788" y="4831744.878820003" />
		<node id="2288699431" x="685519.4551154284" y="4831802.221721232" />
		<node id="2288699436" x="685288.3858021945" y="4831475.158236825" />
		<node id="2379625545" x="677966.6822271221" y="4825455.429574685" />
		<node id="2379625548" x="678137.1210357777" y="4825958.907256608" />
		<node id="2379626248" x="677679.2118659337" y="4825885.990442884" />
		<node id="2379626251" x="678351.2061781228" y="4825650.935965738" />
		<node id="2379627382" x="677764.3649258423" y="4825986.009480333" />
		<node id="2379627386" x="678350.609078365" y="4825992.61337447" />
		<node id="2379627929" x="678146.8653721063" y="4825845.887096289" />
		<node id="2379627931" x="677902.5022962099" y="4825846.7340252865" />
		<node id="2379628006" x="678299.3497227647" y="4825806.287559425" />
		<node id="2379628007" x="678146.9565956816" y="4825805.406300641" />
		<node id="2379629290" x="678201.4834138432" y="4825937.962621223" />
		<node id="2379629292" x="678206.8241394571" y="4825651.244971627" />
		<node id="2379629785" x="677882.2340766516" y="4825784.748253655" />
		<node id="2379629786" x="677902.5022962099" y="4825946.695267476" />
		<node id="2379630095" x="677729.583864947" y="4825705.630222914" />
		<node id="2379631556" x="678055.87400345" y="4825501.4931874145" />
		<node id="2379631559" x="678089.328175997" y="4825267.092682898" />
		<node id="2379631561" x="678088.7310762393" y="4825392.01679161" />
		<node id="2379631562" x="677962.9503536391" y="4825392.554670556" />
		<node id="2379631564" x="678212.1151067548" y="4825455.727127472" />
		<node id="2379631864" x="677877.258245336" y="4825407.981514231" />
		<node id="2379631866" x="677671.1593122531" y="4825550.395342118" />
		<node id="2379631940" x="677938.3697469386" y="4825386.615116057" />
		<node id="2379632113" x="677726.2334718633" y="4825506.608842399" />
		<node id="2379632607" x="678089.328175997" y="4825295.256485976" />
		<node id="2379632608" x="678050.3757098479" y="4825294.672838344" />
		<node id="2379632609" x="677938.3448677834" y="4825294.10063483" />
		<node id="2379633015" x="678713.0403383225" y="4827266.356151196" />
		<node id="2379633170" x="678577.6230890758" y="4827218.552207645" />
		<node id="2379633607" x="678635.0441824532" y="4827528.642691251" />
		<node id="2379633660" x="678720.1557771027" y="4827060.833597618" />
		<node id="2379633663" x="678769.1511294543" y="4826827.307247415" />
		<node id="2379633711" x="678923.0618850902" y="4826894.796820431" />
		<node id="2379633712" x="678640.0780651349" y="4826894.441971904" />
		<node id="2379634561" x="678804.9024774553" y="4827094.968644734" />
		<node id="2379634563" x="678826.0829327547" y="4826894.682353164" />
		<node id="2379634844" x="678875.8661250643" y="4827158.70616708" />
		<node id="2379634893" x="678631.9342878832" y="4827029.594797535" />